
#======================================================================
# CRYSTAL DATA
#----------------------------------------------------------------------
data_VESTA_phase_1

_chemical_name_common                  '-1                                  '
_cell_length_a                         20.382000
_cell_length_b                         20.165199
_cell_length_c                         13.574200
_cell_angle_alpha                      90
_cell_angle_beta                       90
_cell_angle_gamma                      90
_cell_volume                           5579.086950
_space_group_name_H-M_alt              'P 1'
_space_group_IT_number                 1

loop_
_space_group_symop_operation_xyz
   'x, y, z'

loop_
   _atom_site_label
   _atom_site_occupancy
   _atom_site_fract_x
   _atom_site_fract_y
   _atom_site_fract_z
   _atom_site_adp_type
   _atom_site_B_iso_or_equiv
   _atom_site_type_symbol
   Si1         1.0     0.424727     0.842553     0.147619    Biso  1.000000 Si
   Si2         1.0     0.308400     0.813047     0.295160    Biso  1.000000 Si
   Si3         1.0     0.280183     0.846654     0.515613    Biso  1.000000 Si
   Si4         1.0     0.121648     0.849886     0.514125    Biso  1.000000 Si
   Si5         1.0     0.069131     0.815224     0.301719    Biso  1.000000 Si
   Si6         1.0     0.183941     0.844757     0.161296    Biso  1.000000 Si
   Si7         1.0     0.419705     0.612179     0.163339    Biso  1.000000 Si
   Si8         1.0     0.305687     0.653557     0.307039    Biso  1.000000 Si
   Si9         1.0     0.267914     0.614838     0.523129    Biso  1.000000 Si
   Si10        1.0     0.114731     0.612554     0.512072    Biso  1.000000 Si
   Si11        1.0     0.065713     0.657133     0.300279    Biso  1.000000 Si
   Si12        1.0     0.184261     0.612331     0.173234    Biso  1.000000 Si
   Si13        1.0     0.076663     0.727264     0.651182    Biso  1.000000 Si
   Si14        1.0     0.190932     0.755495     0.800230    Biso  1.000000 Si
   Si15        1.0     0.218906     0.724223     0.020228    Biso  1.000000 Si
   Si16        1.0     0.376540     0.721230     0.014175    Biso  1.000000 Si
   Si17        1.0     0.428998     0.754408     0.802196    Biso  1.000000 Si
   Si18        1.0     0.313834     0.727317     0.662549    Biso  1.000000 Si
   Si19        1.0     0.077090     0.957589     0.664868    Biso  1.000000 Si
   Si20        1.0     0.192407     0.914532     0.806078    Biso  1.000000 Si
   Si21        1.0     0.230092     0.957731     0.021428    Biso  1.000000 Si
   Si22        1.0     0.383567     0.958495     0.011235    Biso  1.000000 Si
   Si23        1.0     0.432762     0.912795     0.800395    Biso  1.000000 Si
   Si24        1.0     0.314654     0.955159     0.669686    Biso  1.000000 Si
   Si25        1.0     0.575313     0.342453     0.835836    Biso  1.000000 Si
   Si26        1.0     0.692075     0.312215     0.689813    Biso  1.000000 Si
   Si27        1.0     0.718731     0.346237     0.468744    Biso  1.000000 Si
   Si28        1.0     0.877302     0.350560     0.469087    Biso  1.000000 Si
   Si29        1.0     0.928609     0.314378     0.681213    Biso  1.000000 Si
   Si30        1.0     0.816321     0.340786     0.827924    Biso  1.000000 Si
   Si31        1.0     0.577407     0.112738     0.817504    Biso  1.000000 Si
   Si32        1.0     0.691477     0.153624     0.673444    Biso  1.000000 Si
   Si33        1.0     0.729383     0.112520     0.458451    Biso  1.000000 Si
   Si34        1.0     0.882800     0.111419     0.471027    Biso  1.000000 Si
   Si35        1.0     0.931731     0.156263     0.681975    Biso  1.000000 Si
   Si36        1.0     0.812641     0.112217     0.808322    Biso  1.000000 Si
   Si37        1.0     0.922616     0.227777     0.334371    Biso  1.000000 Si
   Si38        1.0     0.808340     0.255496     0.182973    Biso  1.000000 Si
   Si39        1.0     0.779462     0.220644     0.966094    Biso  1.000000 Si
   Si40        1.0     0.621853     0.220807     0.969432    Biso  1.000000 Si
   Si41        1.0     0.571125     0.254513     0.180786    Biso  1.000000 Si
   Si42        1.0     0.685614     0.227979     0.324227    Biso  1.000000 Si
   Si43        1.0     0.920902     0.457801     0.317733    Biso  1.000000 Si
   Si44        1.0     0.805584     0.412243     0.175396    Biso  1.000000 Si
   Si45        1.0     0.768385     0.457733     0.960367    Biso  1.000000 Si
   Si46        1.0     0.615000     0.458793     0.968962    Biso  1.000000 Si
   Si47        1.0     0.567465     0.412310     0.180346    Biso  1.000000 Si
   Si48        1.0     0.685212     0.452991     0.311977    Biso  1.000000 Si
   Si49        1.0     0.575120     0.727427     0.837504    Biso  1.000000 Si
   Si50        1.0     0.689388     0.759166     0.688921    Biso  1.000000 Si
   Si51        1.0     0.719937     0.723311     0.470803    Biso  1.000000 Si
   Si52        1.0     0.877022     0.720908     0.467998    Biso  1.000000 Si
   Si53        1.0     0.929905     0.754337     0.678435    Biso  1.000000 Si
   Si54        1.0     0.814370     0.728708     0.821040    Biso  1.000000 Si
   Si55        1.0     0.577830     0.958982     0.817124    Biso  1.000000 Si
   Si56        1.0     0.689953     0.916347     0.673061    Biso  1.000000 Si
   Si57        1.0     0.729968     0.955710     0.457408    Biso  1.000000 Si
   Si58        1.0     0.883521     0.958408     0.469170    Biso  1.000000 Si
   Si59        1.0     0.932104     0.912359     0.679511    Biso  1.000000 Si
   Si60        1.0     0.812659     0.955266     0.806744    Biso  1.000000 Si
   Si61        1.0     0.922217     0.843350     0.331627    Biso  1.000000 Si
   Si62        1.0     0.809173     0.813546     0.182270    Biso  1.000000 Si
   Si63        1.0     0.779543     0.846188     0.963589    Biso  1.000000 Si
   Si64        1.0     0.622131     0.849790     0.967385    Biso  1.000000 Si
   Si65        1.0     0.686294     0.840158     0.323058    Biso  1.000000 Si
   Si66        1.0     0.919126     0.613057     0.313470    Biso  1.000000 Si
   Si67        1.0     0.808344     0.657274     0.166825    Biso  1.000000 Si
   Si68        1.0     0.768894     0.613499     0.955765    Biso  1.000000 Si
   Si69        1.0     0.615304     0.611469     0.974304    Biso  1.000000 Si
   Si70        1.0     0.423650     0.227356     0.150457    Biso  1.000000 Si
   Si71        1.0     0.308344     0.257020     0.299936    Biso  1.000000 Si
   Si72        1.0     0.280495     0.222956     0.519452    Biso  1.000000 Si
   Si73        1.0     0.122139     0.220642     0.515379    Biso  1.000000 Si
   Si74        1.0     0.069987     0.254960     0.303690    Biso  1.000000 Si
   Si75        1.0     0.184911     0.227172     0.163034    Biso  1.000000 Si
   Si76        1.0     0.422104     0.457464     0.163254    Biso  1.000000 Si
   Si77        1.0     0.306924     0.416129     0.306551    Biso  1.000000 Si
   Si78        1.0     0.268370     0.458053     0.521157    Biso  1.000000 Si
   Si79        1.0     0.115182     0.459006     0.511693    Biso  1.000000 Si
   Si80        1.0     0.066282     0.413195     0.301033    Biso  1.000000 Si
   Si81        1.0     0.184680     0.455915     0.170573    Biso  1.000000 Si
   Si82        1.0     0.075914     0.343417     0.648911    Biso  1.000000 Si
   Si83        1.0     0.191491     0.314343     0.796249    Biso  1.000000 Si
   Si84        1.0     0.219178     0.346142     0.017581    Biso  1.000000 Si
   Si85        1.0     0.377532     0.348821     0.014035    Biso  1.000000 Si
   Si86        1.0     0.428610     0.315016     0.800712    Biso  1.000000 Si
   Si87        1.0     0.314983     0.344730     0.660022    Biso  1.000000 Si
   Si88        1.0     0.077045     0.112364     0.666963    Biso  1.000000 Si
   Si89        1.0     0.192543     0.154751     0.807395    Biso  1.000000 Si
   Si90        1.0     0.230193     0.114544     0.023325    Biso  1.000000 Si
   Si91        1.0     0.383810     0.112040     0.013258    Biso  1.000000 Si
   Si92        1.0     0.432470     0.156970     0.800887    Biso  1.000000 Si
   Si93        1.0     0.314433     0.111788     0.673358    Biso  1.000000 Si
   Si94        1.0     0.571796     0.814740     0.179368    Biso  1.000000 Si
   Si95        1.0     0.565423     0.656956     0.183832    Biso  1.000000 Si
   Al1         1.0     0.688619     0.614362     0.308196    Biso  1.000000 Al
   O1          1.0     0.367709     0.844903     0.231184    Biso  1.000000 O
   O2          1.0     0.311587     0.843158     0.405840    Biso  1.000000 O
   O3          1.0     0.200862     0.842308     0.510203    Biso  1.000000 O
   O4          1.0     0.091978     0.850219     0.403816    Biso  1.000000 O
   O5          1.0     0.111657     0.844985     0.210698    Biso  1.000000 O
   O6          1.0     0.238070     0.831696     0.247039    Biso  1.000000 O
   O7          1.0     0.365638     0.615382     0.252043    Biso  1.000000 O
   O8          1.0     0.308140     0.631566     0.422308    Biso  1.000000 O
   O9          1.0     0.191567     0.636178     0.510694    Biso  1.000000 O
   O10         1.0     0.085011     0.619484     0.402164    Biso  1.000000 O
   O11         1.0     0.109860     0.626945     0.210615    Biso  1.000000 O
   O12         1.0     0.235220     0.632342     0.261189    Biso  1.000000 O
   O13         1.0     0.316850     0.732814     0.296822    Biso  1.000000 O
   O14         1.0     0.081259     0.735747     0.311454    Biso  1.000000 O
   O15         1.0     0.424681     0.911763     0.086167    Biso  1.000000 O
   O16         1.0     0.413255     0.780936     0.072110    Biso  1.000000 O
   O17         1.0     0.392953     0.650379     0.065987    Biso  1.000000 O
   O18         1.0     0.196005     0.916510     0.110268    Biso  1.000000 O
   O19         1.0     0.187356     0.786532     0.078839    Biso  1.000000 O
   O20         1.0     0.200508     0.654744     0.074343    Biso  1.000000 O
   O21         1.0     0.992921     0.831947     0.278896    Biso  1.000000 O
   O22         1.0     0.988747     0.645077     0.276798    Biso  1.000000 O
   O23         1.0     0.133280     0.722019     0.734966    Biso  1.000000 O
   O24         1.0     0.189228     0.722639     0.909379    Biso  1.000000 O
   O25         1.0     0.298047     0.734002     0.016734    Biso  1.000000 O
   O26         1.0     0.402791     0.717735     0.901552    Biso  1.000000 O
   O27         1.0     0.387589     0.727890     0.707657    Biso  1.000000 O
   O28         1.0     0.262173     0.740395     0.751291    Biso  1.000000 O
   O29         1.0     0.132642     0.951365     0.749976    Biso  1.000000 O
   O30         1.0     0.193438     0.941710     0.918193    Biso  1.000000 O
   O31         1.0     0.306833     0.935738     0.012196    Biso  1.000000 O
   O32         1.0     0.412331     0.951932     0.900269    Biso  1.000000 O
   O33         1.0     0.388663     0.940127     0.709024    Biso  1.000000 O
   O34         1.0     0.262278     0.930670     0.752933    Biso  1.000000 O
   O35         1.0     0.179837     0.835087     0.805611    Biso  1.000000 O
   O36         1.0     0.419661     0.833906     0.815401    Biso  1.000000 O
   O37         1.0     0.074558     0.658175     0.589513    Biso  1.000000 O
   O38         1.0     0.091395     0.788304     0.576200    Biso  1.000000 O
   O39         1.0     0.101606     0.919603     0.565703    Biso  1.000000 O
   O40         1.0     0.301427     0.654715     0.613792    Biso  1.000000 O
   O41         1.0     0.307752     0.783987     0.578360    Biso  1.000000 O
   O42         1.0     0.302523     0.915892     0.566670    Biso  1.000000 O
   O43         1.0     0.505092     0.734989     0.780843    Biso  1.000000 O
   O44         1.0     0.509874     0.925907     0.776632    Biso  1.000000 O
   O45         1.0     0.632871     0.344917     0.753501    Biso  1.000000 O
   O46         1.0     0.692969     0.346785     0.582099    Biso  1.000000 O
   O47         1.0     0.798362     0.342456     0.465428    Biso  1.000000 O
   O48         1.0     0.902771     0.351188     0.582113    Biso  1.000000 O
   O49         1.0     0.888214     0.340693     0.776447    Biso  1.000000 O
   O50         1.0     0.761606     0.325733     0.743942    Biso  1.000000 O
   O51         1.0     0.632402     0.116373     0.731260    Biso  1.000000 O
   O52         1.0     0.689902     0.129682     0.559491    Biso  1.000000 O
   O53         1.0     0.806008     0.133923     0.472881    Biso  1.000000 O
   O54         1.0     0.913185     0.117412     0.581116    Biso  1.000000 O
   O55         1.0     0.887297     0.128120     0.772452    Biso  1.000000 O
   O56         1.0     0.762272     0.134935     0.721415    Biso  1.000000 O
   O57         1.0     0.679734     0.233012     0.680563    Biso  1.000000 O
   O58         1.0     0.918446     0.234970     0.667091    Biso  1.000000 O
   O59         1.0     0.572684     0.413235     0.893288    Biso  1.000000 O
   O60         1.0     0.586001     0.282834     0.914850    Biso  1.000000 O
   O61         1.0     0.602451     0.151814     0.915225    Biso  1.000000 O
   O62         1.0     0.804792     0.413135     0.877167    Biso  1.000000 O
   O63         1.0     0.814319     0.283367     0.912057    Biso  1.000000 O
   O64         1.0     0.797211     0.151835     0.909911    Biso  1.000000 O
   O65         1.0     0.005299     0.331985     0.701108    Biso  1.000000 O
   O66         1.0     0.008672     0.143677     0.708119    Biso  1.000000 O
   O67         1.0     0.866826     0.224375     0.249522    Biso  1.000000 O
   O68         1.0     0.805936     0.215847     0.078686    Biso  1.000000 O
   O69         1.0     0.700490     0.232417     0.964700    Biso  1.000000 O
   O70         1.0     0.596830     0.216017     0.082621    Biso  1.000000 O
   O71         1.0     0.612671     0.230357     0.276147    Biso  1.000000 O
   O72         1.0     0.738551     0.246371     0.239045    Biso  1.000000 O
   O73         1.0     0.864803     0.448087     0.234572    Biso  1.000000 O
   O74         1.0     0.801915     0.446398     0.067265    Biso  1.000000 O
   O75         1.0     0.691369     0.435372     0.965275    Biso  1.000000 O
   O76         1.0     0.586925     0.451805     0.080126    Biso  1.000000 O
   O77         1.0     0.610249     0.438567     0.272618    Biso  1.000000 O
   O78         1.0     0.735931     0.419542     0.232180    Biso  1.000000 O
   O79         1.0     0.822135     0.333677     0.163153    Biso  1.000000 O
   O80         1.0     0.579614     0.333659     0.162610    Biso  1.000000 O
   O81         1.0     0.923233     0.158545     0.395564    Biso  1.000000 O
   O82         1.0     0.910393     0.289018     0.409920    Biso  1.000000 O
   O83         1.0     0.899695     0.420226     0.419178    Biso  1.000000 O
   O84         1.0     0.698327     0.153665     0.366785    Biso  1.000000 O
   O85         1.0     0.689623     0.280594     0.414559    Biso  1.000000 O
   O86         1.0     0.692960     0.413536     0.416894    Biso  1.000000 O
   O87         1.0     0.494562     0.236870     0.202513    Biso  1.000000 O
   O88         1.0     0.490143     0.426048     0.204635    Biso  1.000000 O
   O89         1.0     0.633455     0.723339     0.756286    Biso  1.000000 O
   O90         1.0     0.687986     0.724237     0.581753    Biso  1.000000 O
   O91         1.0     0.799133     0.733754     0.479149    Biso  1.000000 O
   O92         1.0     0.910166     0.716797     0.576784    Biso  1.000000 O
   O93         1.0     0.886532     0.727192     0.770311    Biso  1.000000 O
   O94         1.0     0.761335     0.749970     0.737581    Biso  1.000000 O
   O95         1.0     0.632405     0.956820     0.729904    Biso  1.000000 O
   O96         1.0     0.690349     0.938657     0.558377    Biso  1.000000 O
   O97         1.0     0.806881     0.935334     0.471339    Biso  1.000000 O
   O98         1.0     0.914116     0.951838     0.578960    Biso  1.000000 O
   O99         1.0     0.887098     0.940213     0.769371    Biso  1.000000 O
   O100        1.0     0.761331     0.932597     0.721089    Biso  1.000000 O
   O101        1.0     0.673191     0.837876     0.681898    Biso  1.000000 O
   O102        1.0     0.918890     0.833693     0.664135    Biso  1.000000 O
   O103        1.0     0.573459     0.658675     0.900030    Biso  1.000000 O
   O104        1.0     0.583735     0.789952     0.911522    Biso  1.000000 O
   O105        1.0     0.603876     0.919822     0.914481    Biso  1.000000 O
   O106        1.0     0.797571     0.655128     0.862522    Biso  1.000000 O
   O107        1.0     0.813846     0.782884     0.909968    Biso  1.000000 O
   O108        1.0     0.798617     0.914906     0.908018    Biso  1.000000 O
   O109        1.0     0.006340     0.738651     0.704330    Biso  1.000000 O
   O110        1.0     0.008984     0.925484     0.705909    Biso  1.000000 O
   O111        1.0     0.866094     0.848924     0.247546    Biso  1.000000 O
   O112        1.0     0.805213     0.851154     0.076257    Biso  1.000000 O
   O113        1.0     0.700294     0.835874     0.960329    Biso  1.000000 O
   O114        1.0     0.598164     0.853015     0.081164    Biso  1.000000 O
   O115        1.0     0.613236     0.838587     0.274852    Biso  1.000000 O
   O116        1.0     0.738896     0.821667     0.237498    Biso  1.000000 O
   O117        1.0     0.866997     0.617965     0.224358    Biso  1.000000 O
   O118        1.0     0.810951     0.630867     0.053116    Biso  1.000000 O
   O119        1.0     0.691958     0.633735     0.972271    Biso  1.000000 O
   O120        1.0     0.585896     0.615854     0.085036    Biso  1.000000 O
   O121        1.0     0.604239     0.630435     0.279763    Biso  1.000000 O
   O122        1.0     0.737767     0.645096     0.214671    Biso  1.000000 O
   O123        1.0     0.827343     0.736159     0.167075    Biso  1.000000 O
   O124        1.0     0.578574     0.735302     0.162271    Biso  1.000000 O
   O125        1.0     0.924545     0.912630     0.392825    Biso  1.000000 O
   O126        1.0     0.909169     0.782352     0.407235    Biso  1.000000 O
   O127        1.0     0.892549     0.651771     0.411067    Biso  1.000000 O
   O128        1.0     0.699286     0.914573     0.365692    Biso  1.000000 O
   O129        1.0     0.689800     0.787505     0.412980    Biso  1.000000 O
   O130        1.0     0.700968     0.654338     0.420845    Biso  1.000000 O
   O131        1.0     0.495463     0.834096     0.200450    Biso  1.000000 O
   O132        1.0     0.486707     0.645720     0.204758    Biso  1.000000 O
   O133        1.0     0.367079     0.225615     0.234544    Biso  1.000000 O
   O134        1.0     0.310312     0.223251     0.408524    Biso  1.000000 O
   O135        1.0     0.201224     0.229240     0.516585    Biso  1.000000 O
   O136        1.0     0.095361     0.218163     0.403250    Biso  1.000000 O
   O137        1.0     0.111828     0.228046     0.210057    Biso  1.000000 O
   O138        1.0     0.237692     0.241995     0.249934    Biso  1.000000 O
   O139        1.0     0.367079     0.452097     0.249623    Biso  1.000000 O
   O140        1.0     0.306900     0.444635     0.418360    Biso  1.000000 O
   O141        1.0     0.192068     0.435711     0.511321    Biso  1.000000 O
   O142        1.0     0.086067     0.452482     0.401243    Biso  1.000000 O
   O143        1.0     0.110907     0.440522     0.210078    Biso  1.000000 O
   O144        1.0     0.237071     0.433204     0.254870    Biso  1.000000 O
   O145        1.0     0.318742     0.336732     0.307822    Biso  1.000000 O
   O146        1.0     0.079926     0.334543     0.316994    Biso  1.000000 O
   O147        1.0     0.423662     0.157330     0.091509    Biso  1.000000 O
   O148        1.0     0.411380     0.287773     0.073029    Biso  1.000000 O
   O149        1.0     0.397443     0.418942     0.064806    Biso  1.000000 O
   O150        1.0     0.198241     0.154694     0.115056    Biso  1.000000 O
   O151        1.0     0.189315     0.283753     0.078156    Biso  1.000000 O
   O152        1.0     0.198227     0.415773     0.068827    Biso  1.000000 O
   O153        1.0     0.993729     0.237375     0.282299    Biso  1.000000 O
   O154        1.0     0.989590     0.426742     0.275943    Biso  1.000000 O
   O155        1.0     0.132295     0.347158     0.733184    Biso  1.000000 O
   O156        1.0     0.189608     0.344732     0.906755    Biso  1.000000 O
   O157        1.0     0.298584     0.339445     0.015777    Biso  1.000000 O
   O158        1.0     0.403889     0.350538     0.901527    Biso  1.000000 O
   O159        1.0     0.388030     0.344999     0.707698    Biso  1.000000 O
   O160        1.0     0.261802     0.333171     0.747324    Biso  1.000000 O
   O161        1.0     0.132233     0.117575     0.752909    Biso  1.000000 O
   O162        1.0     0.191555     0.133410     0.922507    Biso  1.000000 O
   O163        1.0     0.307177     0.135184     0.011345    Biso  1.000000 O
   O164        1.0     0.414813     0.120466     0.904054    Biso  1.000000 O
   O165        1.0     0.388673     0.125196     0.712625    Biso  1.000000 O
   O166        1.0     0.262501     0.133167     0.759062    Biso  1.000000 O
   O167        1.0     0.182919     0.234346     0.797049    Biso  1.000000 O
   O168        1.0     0.416302     0.235637     0.809869    Biso  1.000000 O
   O169        1.0     0.074511     0.413103     0.588444    Biso  1.000000 O
   O170        1.0     0.089632     0.283247     0.572189    Biso  1.000000 O
   O171        1.0     0.101518     0.151739     0.568920    Biso  1.000000 O
   O172        1.0     0.303728     0.416825     0.608864    Biso  1.000000 O
   O173        1.0     0.310137     0.286467     0.578061    Biso  1.000000 O
   O174        1.0     0.301640     0.154299     0.573390    Biso  1.000000 O
   O175        1.0     0.505384     0.331634     0.780613    Biso  1.000000 O
   O176        1.0     0.509717     0.145815     0.776215    Biso  1.000000 O
   O177        1.0     0.432201     0.535086     0.134908    Biso  1.000000 O
   O178        1.0     0.192831     0.534371     0.146867    Biso  1.000000 O
   O179        1.0     0.275003     0.536312     0.548296    Biso  1.000000 O
   O180        1.0     0.109572     0.535696     0.547169    Biso  1.000000 O
   O181        1.0     0.066625     0.035175     0.637450    Biso  1.000000 O
   O182        1.0     0.305600     0.033739     0.647647    Biso  1.000000 O
   O183        1.0     0.223551     0.035992     0.046611    Biso  1.000000 O
   O184        1.0     0.390311     0.035028     0.046967    Biso  1.000000 O
   O185        1.0     0.564927     0.035796     0.847517    Biso  1.000000 O
   O186        1.0     0.804232     0.033651     0.830227    Biso  1.000000 O
   O187        1.0     0.723164     0.034251     0.433078    Biso  1.000000 O
   O188        1.0     0.889673     0.035201     0.433986    Biso  1.000000 O
   O189        1.0     0.930504     0.535720     0.342919    Biso  1.000000 O
   O190        1.0     0.697614     0.529940     0.327322    Biso  1.000000 O
   O191        1.0     0.774489     0.535087     0.928577    Biso  1.000000 O
   O192        1.0     0.607452     0.535660     0.934172    Biso  1.000000 O
   H1          1.0     0.565601     0.611905     0.386719    Biso  1.000000 H
   H2          1.0     0.582980     0.566010     0.689061    Biso  1.000000 H
   H3          1.0     0.631709     0.606968     0.527349    Biso  1.000000 H
   H4          1.0     0.453973     0.584588     0.382543    Biso  1.000000 H
   H5          1.0     0.398419     0.541179     0.535706    Biso  1.000000 H
   H6          1.0     0.464212     0.532155     0.691378    Biso  1.000000 H
   C1          1.0     0.486927     0.550324     0.623730    Biso  1.000000 C
   C2          1.0     0.552968     0.568894     0.622829    Biso  1.000000 C
   C3          1.0     0.580767     0.591448     0.535593    Biso  1.000000 C
   C4          1.0     0.479641     0.578477     0.452249    Biso  1.000000 C
   C5          1.0     0.449912     0.555183     0.537371    Biso  1.000000 C
   N1          1.0     0.543623     0.595604     0.453495    Biso  1.000000 N
